Input Parameters:
   integrator                     = md
   tinit                          = 0
   dt                             = 0.002
   nsteps                         = 25000
   init-step                      = 0
   simulation-part                = 1
   mts                            = false
   comm-mode                      = Linear
   nstcomm                        = 1000
   bd-fric                        = 0
   ld-seed                        = -1359039041
   emtol                          = 10
   emstep                         = 0.01
   niter                          = 20
   fcstep                         = 0
   nstcgsteep                     = 1000
   nbfgscorr                      = 10
   rtpi                           = 0.05
   nstxout                        = 0
   nstvout                        = 0
   nstfout                        = 0
   nstlog                         = 1000
   nstcalcenergy                  = 100
   nstenergy                      = 1000
   nstxout-compressed             = 1000
   compressed-x-precision         = 1000
   cutoff-scheme                  = Verlet
   nstlist                        = 15
   pbc                            = xyz
   periodic-molecules             = false
   verlet-buffer-tolerance        = 0.005
   rlist                          = 1.013
   coulombtype                    = PME
   coulomb-modifier               = Potential-shift
   rcoulomb-switch                = 0
   rcoulomb                       = 1
   epsilon-r                      = 1
   epsilon-rf                     = inf
   vdw-type                       = Cut-off
   vdw-modifier                   = Potential-shift
   rvdw-switch                    = 0
   rvdw                           = 1
   DispCorr                       = No
   table-extension                = 1
   fourierspacing                 = 0.08
   fourier-nx                     = 80
   fourier-ny                     = 80
   fourier-nz                     = 80
   pme-order                      = 4
   ewald-rtol                     = 1e-05
   ewald-rtol-lj                  = 0.001
   lj-pme-comb-rule               = Geometric
   ewald-geometry                 = 0
   epsilon-surface                = 0
   tcoupl                         = Nose-Hoover
   nsttcouple                     = 10
   nh-chain-length                = 1
   print-nose-hoover-chain-variables = false
   pcoupl                         = Parrinello-Rahman
   pcoupltype                     = Isotropic
   nstpcouple                     = 10
   tau-p                          = 1
   compressibility (3x3):
      compressibility[    0]={ 4.50000e-05,  0.00000e+00,  0.00000e+00}
      compressibility[    1]={ 0.00000e+00,  4.50000e-05,  0.00000e+00}
      compressibility[    2]={ 0.00000e+00,  0.00000e+00,  4.50000e-05}
   ref-p (3x3):
      ref-p[    0]={ 1.00000e+00,  0.00000e+00,  0.00000e+00}
      ref-p[    1]={ 0.00000e+00,  1.00000e+00,  0.00000e+00}
      ref-p[    2]={ 0.00000e+00,  0.00000e+00,  1.00000e+00}
   refcoord-scaling               = No
   posres-com (3):
      posres-com[0]= 0.00000e+00
      posres-com[1]= 0.00000e+00
      posres-com[2]= 0.00000e+00
   posres-comB (3):
      posres-comB[0]= 0.00000e+00
      posres-comB[1]= 0.00000e+00
      posres-comB[2]= 0.00000e+00
   QMMM                           = false
qm-opts:
   ngQM                           = 0
   constraint-algorithm           = Lincs
   continuation                   = false
   Shake-SOR                      = false
   shake-tol                      = 0.0001
   lincs-order                    = 4
   lincs-iter                     = 4
   lincs-warnangle                = 30
   nwall                          = 0
   wall-type                      = 9-3
   wall-r-linpot                  = -1
   wall-atomtype[0]               = -1
   wall-atomtype[1]               = -1
   wall-density[0]                = 0
   wall-density[1]                = 0
   wall-ewald-zfac                = 3
   pull                           = false
   awh                            = false
   rotation                       = false
   interactiveMD                  = false
   disre                          = No
   disre-weighting                = Conservative
   disre-mixed                    = false
   dr-fc                          = 1000
   dr-tau                         = 0
   nstdisreout                    = 100
   orire-fc                       = 0
   orire-tau                      = 0
   nstorireout                    = 100
   free-energy                    = no
   cos-acceleration               = 0
   deform (3x3):
      deform[    0]={ 0.00000e+00,  0.00000e+00,  0.00000e+00}
      deform[    1]={ 0.00000e+00,  0.00000e+00,  0.00000e+00}
      deform[    2]={ 0.00000e+00,  0.00000e+00,  0.00000e+00}
   simulated-tempering            = false
   swapcoords                     = no
   userint1                       = 0
   userint2                       = 0
   userint3                       = 0
   userint4                       = 0
   userreal1                      = 0
   userreal2                      = 0
   userreal3                      = 0
   userreal4                      = 0
   applied-forces:
     electric-field:
       x:
         E0                       = 0
         omega                    = 0
         t0                       = 0
         sigma                    = 0
       y:
         E0                       = 0
         omega                    = 0
         t0                       = 0
         sigma                    = 0
       z:
         E0                       = 0
         omega                    = 0
         t0                       = 0
         sigma                    = 0
     density-guided-simulation:
       active                     = false
       group                      = protein
       similarity-measure         = inner-product
       atom-spreading-weight      = unity
       force-constant             = 1e+09
       gaussian-transform-spreading-width = 0.2
       gaussian-transform-spreading-range-in-multiples-of-width = 4
       reference-density-filename = reference.mrc
       nst                        = 1
       normalize-densities        = true
       adaptive-force-scaling     = false
       adaptive-force-scaling-time-constant = 4
       shift-vector               =
       transformation-matrix      =
grpopts:
   nrdf:       42172
   ref-t:         300
   tau-t:           1
annealing:          No
annealing-npoints:           0
   acc:	           0           0           0
   nfreeze:           N           N           N
   energygrp-flags[  0]: 0

Changing nstlist from 15 to 40, rlist from 1.013 to 1.099

Using 1 MPI process

Non-default thread affinity set, disabling internal thread affinity

Using 1 OpenMP thread

System total charge: 0.000
Will do PME sum in reciprocal space for electrostatic interactions.

Using a Gaussian width (1/beta) of 0.320163 nm for Ewald
Potential shift: LJ r^-12: -1.000e+00 r^-6: -1.000e+00, Ewald -1.000e-05
Initialized non-bonded Ewald tables, spacing: 9.33e-04 size: 1073

Generated table with 1049 data points for 1-4 COUL.
Tabscale = 500 points/nm
Generated table with 1049 data points for 1-4 LJ6.
Tabscale = 500 points/nm
Generated table with 1049 data points for 1-4 LJ12.
Tabscale = 500 points/nm

Using SIMD 4x8 nonbonded short-range kernels

Using a dual 4x8 pair-list setup updated with dynamic pruning:
  outer list: updated every 40 steps, buffer 0.099 nm, rlist 1.099 nm
  inner list: updated every 11 steps, buffer 0.001 nm, rlist 1.001 nm
At tolerance 0.005 kJ/mol/ps per atom, equivalent classical 1x1 list would be:
  outer list: updated every 40 steps, buffer 0.214 nm, rlist 1.214 nm
  inner list: updated every 11 steps, buffer 0.042 nm, rlist 1.042 nm

Using Lorentz-Berthelot Lennard-Jones combination rule
Removing pbc first time

Initializing LINear Constraint Solver

The number of constraints is 17

There are: 21080 Atoms

Constraining the starting coordinates (step 0)

Constraining the coordinates at t0-dt (step 0)
Center of mass motion removal mode is Linear
We have the following groups for center of mass motion removal:
  0:  rest
RMS relative constraint deviation after constraining: 6.60e-07
Initial temperature: 296.776 K

PLUMED: PLUMED is starting
PLUMED: Version: 2.7.3 (git: f3834ff18) compiled on Jan 27 2022 at 15:29:41
PLUMED: Please cite these papers when using PLUMED [1][2]
PLUMED: For further information see the PLUMED web page at http://www.plumed.org
PLUMED: Root: /software/plumed-2.7.3-el8-x86_64/lib/plumed
PLUMED: For installed feature, see /software/plumed-2.7.3-el8-x86_64/lib/plumed/src/config/config.txt
PLUMED: Molecular dynamics engine: gromacs
PLUMED: Precision of reals: 4
PLUMED: Running over 1 node
PLUMED: Number of threads: 1
PLUMED: Cache line size: 512
PLUMED: Number of atoms: 21080
PLUMED: File suffix:
PLUMED: FILE: plumed_meta.dat
PLUMED: Action GYRATION
PLUMED:   with label rg
PLUMED:   GYRATION RADIUS (Rg);
PLUMED:   atoms involved : 5 7 12 15 17 22 25 27 29
PLUMED:   broken molecules will be rebuilt assuming atoms are in the proper order
PLUMED: Action ALPHABETA
PLUMED:   with label alpha_d_minus
PLUMED:   Colvar 1 is calculated from atoms : 5 7 12 15
PLUMED:   Colvar 2 is calculated from atoms : 15 17 22 25
PLUMED:   Colvar 3 is calculated from atoms : 7 12 15 17
PLUMED:   Colvar 4 is calculated from atoms : 17 22 25 27
PLUMED:   Colvar 5 is calculated from atoms : 12 15 17 22
PLUMED:   Colvar 6 is calculated from atoms : 22 25 27 29
PLUMED:   value alpha_d_minus contains the sum of all the values
PLUMED: Action ALPHABETA
PLUMED:   with label alpha_d_minus_trans
PLUMED:   Colvar 1 is calculated from atoms : 5 7 12 15
PLUMED:   Colvar 2 is calculated from atoms : 15 17 22 25
PLUMED:   Colvar 3 is calculated from atoms : 7 12 15 17
PLUMED:   Colvar 4 is calculated from atoms : 17 22 25 27
PLUMED:   Colvar 5 is calculated from atoms : 12 15 17 22
PLUMED:   Colvar 6 is calculated from atoms : 22 25 27 29
PLUMED:   value alpha_d_minus_trans contains the sum of all the values
PLUMED: Action ALPHABETA
PLUMED:   with label alpha_d_plus
PLUMED:   Colvar 1 is calculated from atoms : 5 7 12 15
PLUMED:   Colvar 2 is calculated from atoms : 15 17 22 25
PLUMED:   Colvar 3 is calculated from atoms : 7 12 15 17
PLUMED:   Colvar 4 is calculated from atoms : 17 22 25 27
PLUMED:   Colvar 5 is calculated from atoms : 12 15 17 22
PLUMED:   Colvar 6 is calculated from atoms : 22 25 27 29
PLUMED:   value alpha_d_plus contains the sum of all the values
PLUMED: Action ALPHABETA
PLUMED:   with label alpha_d_plus_trans
PLUMED:   Colvar 1 is calculated from atoms : 5 7 12 15
PLUMED:   Colvar 2 is calculated from atoms : 15 17 22 25
PLUMED:   Colvar 3 is calculated from atoms : 7 12 15 17
PLUMED:   Colvar 4 is calculated from atoms : 17 22 25 27
PLUMED:   Colvar 5 is calculated from atoms : 12 15 17 22
PLUMED:   Colvar 6 is calculated from atoms : 22 25 27 29
PLUMED:   value alpha_d_plus_trans contains the sum of all the values
PLUMED: Action ALPHABETA
PLUMED:   with label alpha_plus
PLUMED:   Colvar 1 is calculated from atoms : 5 7 12 15
PLUMED:   Colvar 2 is calculated from atoms : 15 17 22 25
PLUMED:   Colvar 3 is calculated from atoms : 7 12 15 17
PLUMED:   Colvar 4 is calculated from atoms : 17 22 25 27
PLUMED:   Colvar 5 is calculated from atoms : 12 15 17 22
PLUMED:   Colvar 6 is calculated from atoms : 22 25 27 29
PLUMED:   value alpha_plus contains the sum of all the values
PLUMED: Action ALPHABETA
PLUMED:   with label alpha_plus_trans
PLUMED:   Colvar 1 is calculated from atoms : 5 7 12 15
PLUMED:   Colvar 2 is calculated from atoms : 15 17 22 25
PLUMED:   Colvar 3 is calculated from atoms : 7 12 15 17
PLUMED:   Colvar 4 is calculated from atoms : 17 22 25 27
PLUMED:   Colvar 5 is calculated from atoms : 12 15 17 22
PLUMED:   Colvar 6 is calculated from atoms : 22 25 27 29
PLUMED:   value alpha_plus_trans contains the sum of all the values
PLUMED: Action ALPHABETA
PLUMED:   with label alpha_minus
PLUMED:   Colvar 1 is calculated from atoms : 5 7 12 15
PLUMED:   Colvar 2 is calculated from atoms : 15 17 22 25
PLUMED:   Colvar 3 is calculated from atoms : 7 12 15 17
PLUMED:   Colvar 4 is calculated from atoms : 17 22 25 27
PLUMED:   Colvar 5 is calculated from atoms : 12 15 17 22
PLUMED:   Colvar 6 is calculated from atoms : 22 25 27 29
PLUMED:   value alpha_minus contains the sum of all the values
PLUMED: Action ALPHABETA
PLUMED:   with label alpha_minus_trans
PLUMED:   Colvar 1 is calculated from atoms : 5 7 12 15
PLUMED:   Colvar 2 is calculated from atoms : 15 17 22 25
PLUMED:   Colvar 3 is calculated from atoms : 7 12 15 17
PLUMED:   Colvar 4 is calculated from atoms : 17 22 25 27
PLUMED:   Colvar 5 is calculated from atoms : 12 15 17 22
PLUMED:   Colvar 6 is calculated from atoms : 22 25 27 29
PLUMED:   value alpha_minus_trans contains the sum of all the values
PLUMED: Action ALPHABETA
PLUMED:   with label c7beta_plus
PLUMED:   Colvar 1 is calculated from atoms : 5 7 12 15
PLUMED:   Colvar 2 is calculated from atoms : 15 17 22 25
PLUMED:   Colvar 3 is calculated from atoms : 7 12 15 17
PLUMED:   Colvar 4 is calculated from atoms : 17 22 25 27
PLUMED:   Colvar 5 is calculated from atoms : 12 15 17 22
PLUMED:   Colvar 6 is calculated from atoms : 22 25 27 29
PLUMED:   value c7beta_plus contains the sum of all the values
PLUMED: Action ALPHABETA
PLUMED:   with label c7beta_plus_trans
PLUMED:   Colvar 1 is calculated from atoms : 5 7 12 15
PLUMED:   Colvar 2 is calculated from atoms : 15 17 22 25
PLUMED:   Colvar 3 is calculated from atoms : 7 12 15 17
PLUMED:   Colvar 4 is calculated from atoms : 17 22 25 27
PLUMED:   Colvar 5 is calculated from atoms : 12 15 17 22
PLUMED:   Colvar 6 is calculated from atoms : 22 25 27 29
PLUMED:   value c7beta_plus_trans contains the sum of all the values
PLUMED: Action ALPHABETA
PLUMED:   with label c7beta_minus
PLUMED:   Colvar 1 is calculated from atoms : 5 7 12 15
PLUMED:   Colvar 2 is calculated from atoms : 15 17 22 25
PLUMED:   Colvar 3 is calculated from atoms : 7 12 15 17
PLUMED:   Colvar 4 is calculated from atoms : 17 22 25 27
PLUMED:   Colvar 5 is calculated from atoms : 12 15 17 22
PLUMED:   Colvar 6 is calculated from atoms : 22 25 27 29
PLUMED:   value c7beta_minus contains the sum of all the values
PLUMED: Action ALPHABETA
PLUMED:   with label c7beta_minus_trans
PLUMED:   Colvar 1 is calculated from atoms : 5 7 12 15
PLUMED:   Colvar 2 is calculated from atoms : 15 17 22 25
PLUMED:   Colvar 3 is calculated from atoms : 7 12 15 17
PLUMED:   Colvar 4 is calculated from atoms : 17 22 25 27
PLUMED:   Colvar 5 is calculated from atoms : 12 15 17 22
PLUMED:   Colvar 6 is calculated from atoms : 22 25 27 29
PLUMED:   value c7beta_minus_trans contains the sum of all the values
PLUMED: Action TORSION
PLUMED:   with label phi1
PLUMED:   between atoms 5 7 12 15
PLUMED:   using periodic boundary conditions
PLUMED: Action TORSION
PLUMED:   with label phi2
PLUMED:   between atoms 15 17 22 25
PLUMED:   using periodic boundary conditions
PLUMED: Action TORSION
PLUMED:   with label psi1
PLUMED:   between atoms 7 12 15 17
PLUMED:   using periodic boundary conditions
PLUMED: Action TORSION
PLUMED:   with label psi2
PLUMED:   between atoms 17 22 25 27
PLUMED:   using periodic boundary conditions
PLUMED: Action TORSION
PLUMED:   with label omega1
PLUMED:   between atoms 12 15 17 22
PLUMED:   using periodic boundary conditions
PLUMED: Action TORSION
PLUMED:   with label omega2
PLUMED:   between atoms 22 25 27 29
PLUMED:   using periodic boundary conditions
PLUMED: Action PBMETAD
PLUMED:   with label pb
PLUMED:   with arguments rg alpha_d_minus alpha_d_minus_trans alpha_d_plus alpha_d_plus_trans alpha_plus alpha_plus_trans alpha_minus alpha_minus_trans c7beta_plus c7beta_plus_trans c7beta_minus c7beta_minus_trans phi1 phi2 psi1 psi2 omega1 omega2
PLUMED:   added component to this action:  pb.bias
PLUMED:   Binsize not specified, 1/5 of sigma will be be used
PLUMED:   Gaussian width  0.100000 1.000000 1.000000 1.000000 1.000000 1.000000 1.000000 1.000000 1.000000 1.000000 1.000000 1.000000 1.000000 0.350000 0.350000 0.350000 0.350000 0.350000 0.350000  Gaussian height 3.000000
PLUMED:   Gaussian deposition pace 500
PLUMED:   Gaussian files HILLS.rg HILLS.alpha_d_minus HILLS.alpha_d_minus_trans HILLS.alpha_d_plus HILLS.alpha_d_plus_trans HILLS.alpha_plus HILLS.alpha_plus_trans HILLS.alpha_minus HILLS.alpha_minus_trans HILLS.c7beta_plus HILLS.c7beta_plus_trans HILLS.c7beta_minus HILLS.c7beta_minus_trans HILLS.phi1 HILLS.phi2 HILLS.psi1 HILLS.psi2 HILLS.omega1 HILLS.omega2
PLUMED:   Well-Tempered Bias Factor 20.000000
PLUMED:   Hills relaxation time (tau) 15.797479
PLUMED:   KbT 2.494339
PLUMED:   Grid min 0 -1 -1 -1 -1 -1 -1 -1 -1 -1 -1 -1 -1 -pi -pi -pi -pi -pi -pi
PLUMED:   Grid max 3 50 50 50 50 50 50 50 50 50 50 50 50 pi pi pi pi pi pi
PLUMED:   Grid bin 150 256 256 256 256 256 256 256 256 256 256 256 256 90 90 90 90 90 90
PLUMED:   Grid uses spline interpolation
PLUMED:   Bibliography [3]
PLUMED: Action PRINT
PLUMED:   with label @20
PLUMED:   with stride 500
PLUMED:   with arguments rg alpha_d_minus alpha_d_minus_trans alpha_d_plus alpha_d_plus_trans alpha_plus alpha_plus_trans alpha_minus alpha_minus_trans c7beta_plus c7beta_plus_trans c7beta_minus c7beta_minus_trans phi1 phi2 psi1 psi2 omega1 omega2 pb.bias
PLUMED:   on file COLVAR
PLUMED:   with format  %f
PLUMED: END FILE: plumed_meta.dat
PLUMED: Timestep: 0.002000
PLUMED: KbT: 2.494339
PLUMED: Relevant bibliography:
PLUMED:   [1] The PLUMED consortium, Nat. Methods 16, 670 (2019)
PLUMED:   [2] Tribello, Bonomi, Branduardi, Camilloni, and Bussi, Comput. Phys. Commun. 185, 604 (2014)
PLUMED:   [3] Pfaendtner and Bonomi. J. Chem. Theory Comput. 11, 5062 (2015)
PLUMED: Please read and cite where appropriate!
PLUMED: Finished setup
Started mdrun on rank 0 Thu Nov  2 15:11:02 2023

           Step           Time
              0        0.00000

   Energies (kJ/mol)
           Bond            U-B    Proper Dih.  Improper Dih.          LJ-14
    4.02221e+01    6.21696e+01    1.54147e+01    6.99238e+00   -1.69451e+00
     Coulomb-14        LJ (SR)   Coulomb (SR)   Coul. recip.      Potential
    3.90401e+02    6.40778e+04   -3.90334e+05    1.72526e+03   -3.24017e+05
    Kinetic En.   Total Energy  Conserved En.    Temperature Pressure (bar)
    5.19790e+04   -2.72038e+05   -2.72026e+05    2.96483e+02    1.83585e+01
    1.00655e-06

	<====  A V E R A G E S  ====>

	Statistics over 25001 steps using 251 frames

   Energies (kJ/mol)
           Bond            U-B    Proper Dih.  Improper Dih.          LJ-14
    1.96205e+01    6.18462e+01    1.94055e+01    6.08543e+00    1.18434e+00
     Coulomb-14        LJ (SR)   Coulomb (SR)   Coul. recip.      Potential
    3.83128e+02    6.42359e+04   -3.91142e+05    1.69147e+03   -3.24724e+05
    Kinetic En.   Total Energy  Conserved En.    Temperature Pressure (bar)
    5.26081e+04   -2.72116e+05   -2.71982e+05    3.00071e+02    1.12589e+01
   Constr. rmsd
    0.00000e+00

          Box-X          Box-Y          Box-Z
    5.96753e+00    5.96753e+00    5.96753e+00

   Total Virial (kJ/mol)
    1.76583e+04    5.78865e+01    8.43081e+01
    5.77038e+01    1.72620e+04    1.58870e+01
    8.42583e+01    1.60340e+01    1.74749e+04

   Pressure (bar)
   -1.69828e+01   -1.00833e+01   -1.31889e+01
   -1.00547e+01    4.24083e+01   -3.86426e+00
   -1.31811e+01   -3.88723e+00    8.35118e+00
